; Filename: C:\Users\Galp\Google Drive\3_Academy\Ph.D\2_Research\Projects\BIWS-Paper\resources\networks\BIWS.inp
; WNTR: 0.5.0
; Created: 2022-11-26 19:20:58
[TITLE]

[JUNCTIONS]
;ID                      Elevation       Demand Pattern                 
 N1                             46.92            0.04 P0                         ;
 N10                            48.95            0.06 P0                         ;
 N100                           63.01            0.06 P0                         ;
 N1000                          45.69            0.06 P0                         ;
 N1001                          48.71            0.06 P0                         ;
 N1002                          44.95            0.06 P0                         ;
 N1003                          45.96            0.06 P0                         ;
 N1004                          48.59            0.06 P0                         ;
 N1005                          48.36            0.06 P0                         ;
 N1006                          49.01            0.06 P0                         ;
 N1007                          45.88            0.06 P0                         ;
 N1008                          46.45            0.06 P0                         ;
 N1009                          45.62            0.06 P0                         ;
 N101                           63.03            0.06 P0                         ;
 N1010                          45.74            0.06 P0                         ;
 N1011                          45.69            0.06 P0                         ;
 N1012                          45.77            0.06 P0                         ;
 N1013                          48.57            0.06 P0                         ;
 N1014                          46.59            0.06 P0                         ;
 N1015                          50.47            0.06 P0                         ;
 N1016                          49.34            0.06 P0                         ;
 N1017                          48.07            0.06 P0                         ;
 N1018                          48.95            0.06 P0                         ;
 N1019                          50.67            0.06 P0                         ;
 N102                           63.15            0.06 P0                         ;
 N1020                          49.92            0.06 P0                         ;
 N1021                          50.86            0.06 P0                         ;
 N1022                          51.07            0.06 P0                         ;
 N1023                          49.54            0.06 P0                         ;
 N1024                          49.41            0.06 P0                         ;
 N1025                          48.74            0.06 P0                         ;
 N1026                          71.56            0.09 P0                         ;
 N1027                          72.74            0.09 P0                         ;
 N1028                          68.74            0.09 P0                         ;
 N1029                          71.07            0.09 P0                         ;
 N103                           63.72            0.06 P0                         ;
 N1030                          71.48            0.11 P0                         ;
 N1031                          74.11            0.11 P0                         ;
 N1032                          73.76            0.11 P0                         ;
 N1033                          74.77            0.11 P0                         ;
 N1034                          74.31            0.11 P0                         ;
 N1035                          73.97            0.11 P0                         ;
 N1036                          74.03            0.11 P0                         ;
 N1037                          69.69            0.11 P0                         ;
 N1038                          70.09            0.11 P0                         ;
 N1039                          76.86            0.04 P0                         ;
 N104                           40.24            0.04 P0                         ;
 N1040                           72.3            0.04 P0                         ;
 N1041                          66.01            0.11 P0                         ;
 N1042                          65.96            0.11 P0                         ;
 N1043                          66.75            0.11 P0                         ;
 N1044                          66.71            0.11 P0                         ;
 N1045                          69.71            0.11 P0                         ;
 N1046                          70.14            0.11 P0                         ;
 N1047                          71.03            0.11 P0                         ;
 N1048                          71.91            0.11 P0                         ;
 N1049                          68.67            0.11 P0                         ;
 N105                            19.6            0.04 P0                         ;
 N1050                          69.39            0.11 P0                         ;
 N1051                          67.81            0.11 P0                         ;
 N1052                          67.81            0.11 P0                         ;
 N1053                          67.89            0.11 P0                         ;
 N1054                             68            0.11 P0                         ;
 N1055                          71.94            0.11 P0                         ;
 N1056                          70.36            0.11 P0                         ;
 N1057                             70            0.11 P0                         ;
 N1058                          70.13            0.11 P0                         ;
 N106                           41.46            0.04 P0                         ;
 N1060                             80            0.11 P0                         ;
 N1061                             80            0.11 P0                         ;
 N1062                          65.83            0.11 P0                         ;
 N1063                          79.43            0.11 P0                         ;
 N1064                          59.97            0.04 P0                         ;
 N1065                           62.8            0.04 P0                         ;
 N1066                          76.94            0.04 P0                         ;
 N1067                          82.98            0.04 P0                         ;
 N1068                          53.45            0.04 P0                         ;
 N1069                          50.86            0.04 P0                         ;
 N107                           40.96            0.04 P0                         ;
 N1070                          58.38            0.11 P0                         ;
 N1072                          51.92            0.04 P0                         ;
 N1073                          68.38            0.04 P0                         ;
 N1074                          68.51            0.04 P0                         ;
 N1075                           57.9            0.04 P0                         ;
 N1076                           51.1            0.04 P0                         ;
 N1077                          51.48            0.04 P0                         ;
 N1078                          58.43            0.04 P0                         ;
 N1079                           88.1            0.18 P0                         ;
 N108                           40.56            0.04 P0                         ;
 N1080                          87.72            0.18 P0                         ;
 N1081                          50.85            0.06 P0                         ;
 N1082                          50.59            0.06 P0                         ;
 N1083                          50.65            0.06 P0                         ;
 N1084                          50.93            0.06 P0                         ;
 N1085                          52.41            0.06 P0                         ;
 N1086                          52.11            0.06 P0                         ;
 N1087                          51.76            0.06 P0                         ;
 N1088                          53.05            0.06 P0                         ;
 N1089                          52.42            0.06 P0                         ;
 N109                           22.49            0.04 P0                         ;
 N1090                          49.21            0.06 P0                         ;
 N1091                          48.74            0.06 P0                         ;
 N1092                          49.73            0.06 P0                         ;
 N1093                          50.19            0.06 P0                         ;
 N1094                          49.21            0.06 P0                         ;
 N1095                          51.02            0.06 P0                         ;
 N1096                          50.25            0.06 P0                         ;
 N1097                          52.61            0.06 P0                         ;
 N1098                          52.78            0.06 P0                         ;
 N1099                          52.41            0.06 P0                         ;
 N11                            55.43            0.06 P0                         ;
 N110                            19.7            0.04 P0                         ;
 N1100                          52.84            0.06 P0                         ;
 N1101                          52.55            0.06 P0                         ;
 N1102                          52.94            0.06 P0                         ;
 N1103                          49.96            0.06 P0                         ;
 N1104                           51.6            0.06 P0                         ;
 N1105                          51.55            0.06 P0                         ;
 N1106                          50.77            0.06 P0                         ;
 N1107                          49.96            0.06 P0                         ;
 N1108                          53.41            0.06 P0                         ;
 N1109                          51.73            0.06 P0                         ;
 N111                           20.07            0.04 P0                         ;
 N1110                          52.73            0.06 P0                         ;
 N1111                          53.53            0.06 P0                         ;
 N1112                          52.47            0.06 P0                         ;
 N1113                          53.89            0.06 P0                         ;
 N1114                          53.62            0.06 P0                         ;
 N1115                          54.97            0.04 P0                         ;
 N1116                          54.97            0.04 P0                         ;
 N1117                          54.67            0.04 P0                         ;
 N1118                          55.39            0.04 P0                         ;
 N1119                          55.99            0.04 P0                         ;
 N112                           17.26            0.04 P0                         ;
 N1120                          53.17            0.06 P0                         ;
 N1121                          53.21            0.06 P0                         ;
 N1122                          53.08            0.06 P0                         ;
 N1123                          53.05            0.06 P0                         ;
 N1126                          52.04            0.06 P0                         ;
 N1127                          77.01            0.06 P0                         ;
 N1129                          55.63            0.06 P0                         ;
 N113                           37.82            0.04 P0                         ;
 N1130                          77.01            0.06 P0                         ;
 N1131                          69.72            0.11 P0                         ;
 N1132                          55.72            0.06 P0                         ;
 N1133                          54.79            0.06 P0                         ;
 N1134                          77.01            0.06 P0                         ;
 N1135                          77.01            0.06 P0                         ;
 N1136                          77.01            0.06 P0                         ;
 N1137                          77.01               0 P0                         ;
 N1138                          51.25            0.06 P0                         ;
 N1139                          50.13            0.06 P0                         ;
 N114                           42.16            0.04 P0                         ;
 N1140                          50.94            0.06 P0                         ;
 N1141                          50.08            0.06 P0                         ;
 N1142                          50.71            0.06 P0                         ;
 N1143                          51.13            0.06 P0                         ;
 N1144                           49.6            0.06 P0                         ;
 N1145                          50.06            0.06 P0                         ;
 N1146                          57.08            0.06 P0                         ;
 N1147                          56.99            0.06 P0                         ;
 N1148                          54.88            0.06 P0                         ;
 N1149                          57.07            0.06 P0                         ;
 N115                           41.86            0.04 P0                         ;
 N1150                          57.09            0.06 P0                         ;
 N1151                          58.74            0.06 P0                         ;
 N1152                          77.01            0.06 P0                         ;
 N1153                          58.29            0.06 P0                         ;
 N1155                          65.79            0.04 P0                         ;
 N1156                          63.66            0.06 P0                         ;
 N1157                          65.82            0.04 P0                         ;
 N1158                          67.35            0.11 P0                         ;
 N1159                          72.65            0.11 P0                         ;
 N116                           42.04            0.04 P0                         ;
 N1160                           74.4            0.11 P0                         ;
 N1161                          70.89            0.11 P0                         ;
 N1162                          70.83            0.11 P0                         ;
 N1163                           68.7            0.11 P0                         ;
 N1164                          62.14            0.11 P0                         ;
 N1165                          61.77            0.11 P0                         ;
 N1166                          62.94            0.11 P0                         ;
 N1167                          63.03            0.11 P0                         ;
 N1168                          66.62            0.11 P0                         ;
 N1169                          62.94            0.11 P0                         ;
 N117                           43.19            0.04 P0                         ;
 N1170                          63.76            0.11 P0                         ;
 N1171                          63.68            0.11 P0                         ;
 N1172                          62.87            0.11 P0                         ;
 N1173                          62.22            0.11 P0                         ;
 N1174                          65.52            0.11 P0                         ;
 N1175                          65.42            0.11 P0                         ;
 N1176                           64.1            0.11 P0                         ;
 N1177                          64.02            0.11 P0                         ;
 N1178                             64            0.11 P0                         ;
 N1179                          64.82            0.11 P0                         ;
 N118                           46.66            0.04 P0                         ;
 N1180                          64.73            0.11 P0                         ;
 N1181                          63.92            0.11 P0                         ;
 N1182                          64.76            0.11 P0                         ;
 N1183                          65.76            0.11 P0                         ;
 N1184                          65.79            0.11 P0                         ;
 N1185                          64.84            0.11 P0                         ;
 N1186                          65.75            0.11 P0                         ;
 N1187                          65.18            0.11 P0                         ;
 N1188                          65.26            0.11 P0                         ;
 N1189                             80            0.11 P0                         ;
 N119                           43.07            0.04 P0                         ;
 N1190                             80            0.11 P0                         ;
 N1191                          69.08            0.11 P0                         ;
 N1192                           61.1            0.11 P0                         ;
 N1193                          66.52            0.11 P0                         ;
 N1194                          66.35            0.11 P0                         ;
 N1195                          65.09            0.11 P0                         ;
 N1196                          64.99            0.11 P0                         ;
 N1197                          60.44            0.11 P0                         ;
 N1198                          60.37            0.11 P0                         ;
 N1199                          69.18            0.11 P0                         ;
 N12                            52.74            0.06 P0                         ;
 N120                           38.39            0.04 P0                         ;
 N1200                          58.33            0.11 P0                         ;
 N1201                          56.44            0.11 P0                         ;
 N1202                          58.17            0.11 P0                         ;
 N1203                          61.25            0.11 P0                         ;
 N1204                          69.26            0.11 P0                         ;
 N1205                          58.48            0.11 P0                         ;
 N1206                          58.86            0.11 P0                         ;
 N1207                          58.17            0.11 P0                         ;
 N1208                           57.1            0.11 P0                         ;
 N1209                          55.88            0.11 P0                         ;
 N121                           43.54            0.04 P0                         ;
 N1210                          58.49            0.11 P0                         ;
 N1211                          58.55            0.11 P0                         ;
 N1212                          59.11            0.11 P0                         ;
 N1213                          64.97            0.11 P0                         ;
 N1214                          66.57            0.11 P0                         ;
 N1215                          64.34            0.11 P0                         ;
 N1216                          61.33            0.11 P0                         ;
 N1217                          61.29            0.11 P0                         ;
 N1218                           60.3            0.11 P0                         ;
 N1219                          60.22            0.11 P0                         ;
 N122                           43.15            0.04 P0                         ;
 N1220                          59.03            0.11 P0                         ;
 N1221                          59.46            0.11 P0                         ;
 N1222                          59.14            0.11 P0                         ;
 N1223                          69.71            0.11 P0                         ;
 N1224                          69.72            0.11 P0                         ;
 N1225                          69.56            0.11 P0                         ;
 N1226                          69.61            0.11 P0                         ;
 N1227                          69.51            0.11 P0                         ;
 N1228                           69.6            0.11 P0                         ;
 N1229                          69.52            0.11 P0                         ;
 N123                           44.77            0.04 P0                         ;
 N1230                           59.7            0.11 P0                         ;
 N1231                          59.71            0.11 P0                         ;
 N1232                          59.19            0.11 P0                         ;
 N1233                          59.33            0.11 P0                         ;
 N1234                          66.27            0.11 P0                         ;
 N1235                           66.4            0.11 P0                         ;
 N1236                          64.49            0.11 P0                         ;
 N1237                          67.57            0.11 P0                         ;
 N1238                          67.55            0.11 P0                         ;
 N1239                          69.84            0.11 P0                         ;
 N124                           44.47            0.04 P0                         ;
 N1240                          69.78            0.11 P0                         ;
 N1241                          69.66            0.11 P0                         ;
 N1242                           54.5            0.11 P0                         ;
 N1243                          52.63            0.04 P0                         ;
 N1244                          61.72            0.11 P0                         ;
 N1245                             80            0.11 P0                         ;
 N1246                          85.93            0.18 P0                         ;
 N1247                          83.99            0.18 P0                         ;
 N1248                           83.3            0.18 P0                         ;
 N1249                          85.72            0.18 P0                         ;
 N125                           42.05            0.04 P0                         ;
 N1250                          79.94            0.18 P0                         ;
 N1251                          79.81            0.18 P0                         ;
 N1252                          77.14            0.18 P0                         ;
 N1253                          76.14            0.18 P0                         ;
 N1254                          80.23            0.18 P0                         ;
 N1255                          80.61            0.18 P0                         ;
 N1256                          81.95            0.18 P0                         ;
 N1257                          82.47            0.18 P0                         ;
 N1258                          86.61            0.18 P0                         ;
 N1259                           83.2            0.18 P0                         ;
 N126                           40.63            0.04 P0                         ;
 N1260                          83.37            0.18 P0                         ;
 N1261                          86.03            0.18 P0                         ;
 N1262                          87.61            0.18 P0                         ;
 N1263                          87.78            0.18 P0                         ;
 N1264                          85.73            0.18 P0                         ;
 N1265                          86.58            0.18 P0                         ;
 N1266                          81.94            0.18 P0                         ;
 N1267                          87.25            0.18 P0                         ;
 N1268                          87.23            0.18 P0                         ;
 N1269                          86.62            0.18 P0                         ;
 N127                           41.85            0.04 P0                         ;
 N1270                           86.9            0.18 P0                         ;
 N1271                          85.53            0.18 P0                         ;
 N1272                           79.4            0.18 P0                         ;
 N1273                          87.01            0.18 P0                         ;
 N1274                          86.88            0.18 P0                         ;
 N1275                          87.23            0.18 P0                         ;
 N1276                          87.94            0.18 P0                         ;
 N1277                          88.38            0.18 P0                         ;
 N1278                          88.45            0.18 P0                         ;
 N1279                           88.9            0.18 P0                         ;
 N128                           43.22            0.04 P0                         ;
 N1280                          83.13            0.18 P0                         ;
 N1281                          83.51            0.18 P0                         ;
 N1282                          82.21            0.18 P0                         ;
 N1283                          85.63            0.18 P0                         ;
 N1284                           79.1            0.18 P0                         ;
 N1285                          75.92            0.18 P0                         ;
 N1286                          76.17            0.18 P0                         ;
 N1287                          75.57            0.18 P0                         ;
 N1288                          75.22            0.18 P0                         ;
 N1289                          76.77            0.04 P0                         ;
 N129                            47.6            0.04 P0                         ;
 N1290                          93.69            0.18 P0                         ;
 N1291                          76.44            0.04 P0                         ;
 N1292                          74.73            0.04 P0                         ;
 N1293                          78.92            0.04 P0                         ;
 N1294                          67.25            0.04 P0                         ;
 N1295                          64.04            0.04 P0                         ;
 N1296                             64            0.04 P0                         ;
 N1297                          68.66            0.04 P0                         ;
 N1298                          57.04            0.04 P0                         ;
 N1299                          59.73            0.11 P0                         ;
 N13                            62.11            0.06 P0                         ;
 N130                           47.74            0.04 P0                         ;
 N1300                          59.82            0.11 P0                         ;
 N1301                          61.68            0.11 P0                         ;
 N1302                          76.96            0.04 P0                         ;
 N1303                           74.4            0.04 P0                         ;
 N1304                          82.39            0.04 P0                         ;
 N1305                          89.05            0.04 P0                         ;
 N1306                          90.91            0.04 P0                         ;
 N1307                          82.28            0.04 P0                         ;
 N1308                          85.09            0.04 P0                         ;
 N1309                          91.27            0.04 P0                         ;
 N131                           50.01            0.04 P0                         ;
 N1310                          87.18            0.04 P0                         ;
 N1311                           61.1            0.09 P0                         ;
 N1312                          76.46            0.04 P0                         ;
 N1313                          55.86            0.09 P0                         ;
 N1314                           71.2            0.09 P0                         ;
 N1315                          78.34            0.04 P0                         ;
 N1316                          74.97            0.04 P0                         ;
 N1317                          73.22            0.04 P0                         ;
 N1318                           73.5            0.04 P0                         ;
 N1319                          73.74            0.04 P0                         ;
 N132                           48.55            0.04 P0                         ;
 N1320                          56.47            0.04 P0                         ;
 N1321                          57.31            0.04 P0                         ;
 N1322                           56.5            0.04 P0                         ;
 N1323                          54.55            0.04 P0                         ;
 N1324                           54.5            0.04 P0                         ;
 N1325                          53.75            0.04 P0                         ;