[TITLE]


[JUNCTIONS]
;ID              	Elev        	Demand      	Pattern         
 N1              	46.9200     	0.040000    	P0              	;
 N10             	48.9500     	0.060000    	P0              	;
 N100            	63.0100     	0.060000    	P0              	;
 N1000           	45.6900     	0.060000    	P0              	;
 N1001           	48.7100     	0.060000    	P0              	;
 N1002           	44.9500     	0.060000    	P0              	;
 N1003           	45.9600     	0.060000    	P0              	;
 N1004           	48.5900     	0.060000    	P0              	;
 N1005           	48.3600     	0.060000    	P0              	;
 N1006           	49.0100     	0.060000    	P0              	;
 N1007           	45.8800     	0.060000    	P0              	;
 N1008           	46.4500     	0.060000    	P0              	;
 N1009           	45.6200     	0.060000    	P0              	;
 N101            	63.0300     	0.060000    	P0              	;
 N1010           	45.7400     	0.060000    	P0              	;
 N1011           	45.6900     	0.060000    	P0              	;
 N1012           	45.7700     	0.060000    	P0              	;
 N1013           	48.5700     	0.060000    	P0              	;
 N1014           	46.5900     	0.060000    	P0              	;
 N1015           	50.4700     	0.060000    	P0              	;
 N1016           	49.3400     	0.060000    	P0              	;
 N1017           	48.0700     	0.060000    	P0              	;
 N1018           	48.9500     	0.060000    	P0              	;
 N1019           	50.6700     	0.060000    	P0              	;
 N102            	63.1500     	0.060000    	P0              	;
 N1020           	49.9200     	0.060000    	P0              	;
 N1021           	50.8600     	0.060000    	P0              	;
 N1022           	51.0700     	0.060000    	P0              	;
 N1023           	49.5400     	0.060000    	P0              	;
 N1024           	49.4100     	0.060000    	P0              	;
 N1025           	48.7400     	0.060000    	P0              	;
 N1026           	71.5600     	0.090000    	P0              	;
 N1027           	72.7400     	0.090000    	P0              	;
 N1028           	68.7400     	0.090000    	P0              	;
 N1029           	71.0700     	0.090000    	P0              	;
 N103            	63.7200     	0.060000    	P0              	;
 N1030           	71.4800     	0.110000    	P0              	;
 N1031           	74.1100     	0.110000    	P0              	;
 N1032           	73.7600     	0.110000    	P0              	;
 N1033           	74.7700     	0.110000    	P0              	;
 N1034           	74.3100     	0.110000    	P0              	;
 N1035           	73.9700     	0.110000    	P0              	;
 N1036           	74.0300     	0.110000    	P0              	;
 N1037           	69.6900     	0.110000    	P0              	;
 N1038           	70.0900     	0.110000    	P0              	;
 N1039           	76.8600     	0.040000    	P0              	;
 N104            	40.2400     	0.040000    	P0              	;
 N1040           	72.3000     	0.040000    	P0              	;
 N1041           	66.0100     	0.110000    	P0              	;
 N1042           	65.9600     	0.110000    	P0              	;
 N1043           	66.7500     	0.110000    	P0              	;
 N1044           	66.7100     	0.110000    	P0              	;
 N1045           	69.7100     	0.110000    	P0              	;
 N1046           	70.1400     	0.110000    	P0              	;
 N1047           	71.0300     	0.110000    	P0              	;
 N1048           	71.9100     	0.110000    	P0              	;
 N1049           	68.6700     	0.110000    	P0              	;
 N105            	19.6000     	0.040000    	P0              	;
 N1050           	69.3900     	0.110000    	P0              	;
 N1051           	67.8100     	0.110000    	P0              	;
 N1052           	67.8100     	0.110000    	P0              	;
 N1053           	67.8900     	0.110000    	P0              	;
 N1054           	68.0000     	0.110000    	P0              	;
 N1055           	71.9400     	0.110000    	P0              	;
 N1056           	70.3600     	0.110000    	P0              	;
 N1057           	70.0000     	0.110000    	P0              	;
 N1058           	70.1300     	0.110000    	P0              	;
 N106            	41.4600     	0.040000    	P0              	;
 N1060           	80.0000     	0.110000    	P0              	;
 N1061           	80.0000     	0.110000    	P0              	;
 N1062           	65.8300     	0.110000    	P0              	;
 N1063           	79.4300     	0.110000    	P0              	;
 N1064           	59.9700     	0.040000    	P0              	;
 N1065           	62.8000     	0.040000    	P0              	;
 N1066           	76.9400     	0.040000    	P0              	;
 N1067           	82.9800     	0.040000    	P0              	;
 N1068           	53.4500     	0.040000    	P0              	;
 N1069           	50.8600     	0.040000    	P0              	;
 N107            	40.9600     	0.040000    	P0              	;
 N1070           	58.3800     	0.110000    	P0              	;
 N1072           	51.9200     	0.040000    	P0              	;
 N1073           	68.3800     	0.040000    	P0              	;
 N1074           	68.5100     	0.040000    	P0              	;
 N1075           	57.9000     	0.040000    	P0              	;
 N1076           	51.1000     	0.040000    	P0              	;
 N1077           	51.4800     	0.040000    	P0              	;
 N1078           	58.4300     	0.040000    	P0              	;
 N1079           	88.1000     	0.180000    	P0              	;
 N108            	40.5600     	0.040000    	P0              	;
 N1080           	87.7200     	0.180000    	P0              	;
 N1081           	50.8500     	0.060000    	P0              	;
 N1082           	50.5900     	0.060000    	P0              	;
 N1083           	50.6500     	0.060000    	P0              	;
 N1084           	50.9300     	0.060000    	P0              	;
 N1085           	52.4100     	0.060000    	P0              	;
 N1086           	52.1100     	0.060000    	P0              	;
 N1087           	51.7600     	0.060000    	P0              	;
 N1088           	53.0500     	0.060000    	P0              	;
 N1089           	52.4200     	0.060000    	P0              	;
 N109            	22.4900     	0.040000    	P0              	;
 N1090           	49.2100     	0.060000    	P0              	;
 N1091           	48.7400     	0.060000    	P0              	;
 N1092           	49.7300     	0.060000    	P0              	;
 N1093           	50.1900     	0.060000    	P0              	;
 N1094           	49.2100     	0.060000    	P0              	;
 N1095           	51.0200     	0.060000    	P0              	;
 N1096           	50.2500     	0.060000    	P0              	;
 N1097           	52.6100     	0.060000    	P0              	;
 N1098           	52.7800     	0.060000    	P0              	;
 N1099           	52.4100     	0.060000    	P0              	;
 N11             	55.4300     	0.060000    	P0              	;
 N110            	19.7000     	0.040000    	P0              	;
 N1100           	52.8400     	0.060000    	P0              	;
 N1101           	52.5500     	0.060000    	P0              	;
 N1102           	52.9400     	0.060000    	P0              	;
 N1103           	49.9600     	0.060000    	P0              	;
 N1104           	51.6000     	0.060000    	P0              	;
 N1105           	51.5500     	0.060000    	P0              	;
 N1106           	50.7700     	0.060000    	P0              	;
 N1107           	49.9600     	0.060000    	P0              	;
 N1108           	53.4100     	0.060000    	P0              	;
 N1109           	51.7300     	0.060000    	P0              	;
 N111            	20.0700     	0.040000    	P0              	;
 N1110           	52.7300     	0.060000    	P0              	;
 N1111           	53.5300     	0.060000    	P0              	;
 N1112           	52.4700     	0.060000    	P0              	;
 N1113           	53.8900     	0.060000    	P0              	;
 N1114           	53.6200     	0.060000    	P0              	;
 N1115           	54.9700     	0.040000    	P0              	;
 N1116           	54.9700     	0.040000    	P0              	;
 N1117           	54.6700     	0.040000    	P0              	;
 N1118           	55.3900     	0.040000    	P0              	;
 N1119           	55.9900     	0.040000    	P0              	;
 N112            	17.2600     	0.040000    	P0              	;
 N1120           	53.1700     	0.060000    	P0              	;
 N1121           	53.2100     	0.060000    	P0              	;
 N1122           	53.0800     	0.060000    	P0              	;
 N1123           	53.0500     	0.060000    	P0              	;
 N1126           	52.0400     	0.060000    	P0              	;
 N1127           	77.0100     	0.060000    	P0              	;
 N1129           	55.6300     	0.060000    	P0              	;
 N113            	37.8200     	0.040000    	P0              	;
 N1130           	77.0100     	0.060000    	P0              	;
 N1131           	69.7200     	0.110000    	P0              	;
 N1132           	55.7200     	0.060000    	P0              	;
 N1133           	54.7900     	0.060000    	P0              	;
 N1134           	77.0100     	0.060000    	P0              	;
 N1135           	77.0100     	0.060000    	P0              	;
 N1136           	77.0100     	0.060000    	P0              	;
 N1137           	77.0100     	0.000000    	P0              	;
 N1138           	51.2500     	0.060000    	P0              	;
 N1139           	50.1300     	0.060000    	P0              	;
 N114            	42.1600     	0.040000    	P0              	;
 N1140           	50.9400     	0.060000    	P0              	;
 N1141           	50.0800     	0.060000    	P0              	;
 N1142           	50.7100     	0.060000    	P0              	;
 N1143           	51.1300     	0.060000    	P0              	;
 N1144           	49.6000     	0.060000    	P0              	;
 N1145           	50.0600     	0.060000    	P0              	;
 N1146           	57.0800     	0.060000    	P0              	;
 N1147           	56.9900     	0.060000    	P0              	;
 N1148           	54.8800     	0.060000    	P0              	;
 N1149           	57.0700     	0.060000    	P0              	;
 N115            	41.8600     	0.040000    	P0              	;
 N1150           	57.0900     	0.060000    	P0              	;
 N1151           	58.7400     	0.060000    	P0              	;
 N1152           	77.0100     	0.060000    	P0              	;
 N1153           	58.2900     	0.060000    	P0              	;
 N1155           	65.7900     	0.040000    	P0              	;
 N1156           	63.6600     	0.060000    	P0              	;
 N1157           	65.8200     	0.040000    	P0              	;
 N1158           	67.3500     	0.110000    	P0              	;
 N1159           	72.6500     	0.110000    	P0              	;
 N116            	42.0400     	0.040000    	P0              	;
 N1160           	74.4000     	0.110000    	P0              	;
 N1161           	70.8900     	0.110000    	P0              	;
 N1162           	70.8300     	0.110000    	P0              	;
 N1163           	68.7000     	0.110000    	P0              	;
 N1164           	62.1400     	0.110000    	P0              	;
 N1165           	61.7700     	0.110000    	P0              	;
 N1166           	62.9400     	0.110000    	P0              	;
 N1167           	63.0300     	0.110000    	P0              	;
 N1168           	66.6200     	0.110000    	P0              	;
 N1169           	62.9400     	0.110000    	P0              	;
 N117            	43.1900     	0.040000    	P0              	;
 N1170           	63.7600     	0.110000    	P0              	;
 N1171           	63.6800     	0.110000    	P0              	;
 N1172           	62.8700     	0.110000    	P0              	;
 N1173           	62.2200     	0.110000    	P0              	;
 N1174           	65.5200     	0.110000    	P0              	;
 N1175           	65.4200     	0.110000    	P0              	;
 N1176           	64.1000     	0.110000    	P0              	;
 N1177           	64.0200     	0.110000    	P0              	;
 N1178           	64.0000     	0.110000    	P0              	;
 N1179           	64.8200     	0.110000    	P0              	;
 N118            	46.6600     	0.040000    	P0              	;
 N1180           	64.7300     	0.110000    	P0              	;
 N1181           	63.9200     	0.110000    	P0              	;
 N1182           	64.7600     	0.110000    	P0              	;
 N1183           	65.7600     	0.110000    	P0              	;
 N1184           	65.7900     	0.110000    	P0              	;
 N1185           	64.8400     	0.110000    	P0              	;
 N1186           	65.7500     	0.110000    	P0              	;
 N1187           	65.1800     	0.110000    	P0              	;
 N1188           	65.2600     	0.110000    	P0              	;
 N1189           	80.0000     	0.110000    	P0              	;
 N119            	43.0700     	0.040000    	P0              	;
 N1190           	80.0000     	0.110000    	P0              	;
 N1191           	69.0800     	0.110000    	P0              	;
 N1192           	61.1000     	0.110000    	P0              	;
 N1193           	66.5200     	0.110000    	P0              	;
 N1194           	66.3500     	0.110000    	P0              	;
 N1195           	65.0900     	0.110000    	P0              	;
 N1196           	64.9900     	0.110000    	P0              	;
 N1197           	60.4400     	0.110000    	P0              	;
 N1198           	60.3700     	0.110000    	P0              	;
 N1199           	69.1800     	0.110000    	P0              	;
 N12             	52.7400     	0.060000    	P0              	;
 N120            	38.3900     	0.040000    	P0              	;
 N1200           	58.3300     	0.110000    	P0              	;
 N1201           	56.4400     	0.110000    	P0              	;
 N1202           	58.1700     	0.110000    	P0              	;
 N1203           	61.2500     	0.110000    	P0              	;
 N1204           	69.2600     	0.110000    	P0              	;
 N1205           	58.4800     	0.110000    	P0              	;
 N1206           	58.8600     	0.110000    	P0              	;
 N1207           	58.1700     	0.110000    	P0              	;
 N1208           	57.1000     	0.110000    	P0              	;
 N1209           	55.8800     	0.110000    	P0              	;
 N121            	43.5400     	0.040000    	P0              	;
 N1210           	58.4900     	0.110000    	P0              	;
 N1211           	58.5500     	0.110000    	P0              	;
 N1212           	59.1100     	0.110000    	P0              	;
 N1213           	64.9700     	0.110000    	P0              	;
 N1214           	66.5700     	0.110000    	P0              	;
 N1215           	64.3400     	0.110000    	P0              	;
 N1216           	61.3300     	0.110000    	P0              	;
 N1217           	61.2900     	0.110000    	P0              	;
 N1218           	60.3000     	0.110000    	P0              	;
 N1219           	60.2200     	0.110000    	P0              	;
 N122            	43.1500     	0.040000    	P0              	;
 N1220           	59.0300     	0.110000    	P0              	;
 N1221           	59.4600     	0.110000    	P0              	;
 N1222           	59.1400     	0.110000    	P0              	;
 N1223           	69.7100     	0.110000    	P0              	;
 N1224           	69.7200     	0.110000    	P0              	;
 N1225           	69.5600     	0.110000    	P0              	;
 N1226           	69.6100     	0.110000    	P0              	;
 N1227           	69.5100     	0.110000    	P0              	;
 N1228           	69.6000     	0.110000    	P0              	;
 N1229           	69.5200     	0.110000    	P0              	;
 N123            	44.7700     	0.040000    	P0              	;
 N1230           	59.7000     	0.110000    	P0              	;
 N1231           	59.7100     	0.110000    	P0              	;
 N1232           	59.1900     	0.110000    	P0              	;
 N1233           	59.3300     	0.110000    	P0              	;
 N1234           	66.2700     	0.110000    	P0              	;
 N1235           	66.4000     	0.110000    	P0              	;
 N1236           	64.4900     	0.110000    	P0              	;
 N1237           	67.5700     	0.110000    	P0              	;
 N1238           	67.5500     	0.110000    	P0              	;
 N1239           	69.8400     	0.110000    	P0              	;
 N124            	44.4700     	0.040000    	P0              	;
 N1240           	69.7800     	0.110000    	P0              	;
 N1241           	69.6600     	0.110000    	P0              	;
 N1242           	54.5000     	0.110000    	P0              	;
 N1243           	52.6300     	0.040000    	P0              	;
 N1244           	61.7200     	0.110000    	P0              	;
 N1245           	80.0000     	0.110000    	P0              	;
 N1246           	85.9300     	0.180000    	P0              	;
 N1247           	83.9900     	0.180000    	P0              	;
 N1248           	83.3000     	0.180000    	P0              	;
 N1249           	85.7200     	0.180000    	P0              	;
 N125            	42.0500     	0.040000    	P0              	;
 N1250           	79.9400     	0.180000    	P0              	;
 N1251           	79.8100     	0.180000    	P0              	;
 N1252           	77.1400     	0.180000    	P0              	;
 N1253           	76.1400     	0.180000    	P0              	;
 N1254           	80.2300     	0.180000    	P0              	;
 N1255           	80.6100     	0.180000    	P0              	;
 N1256           	81.9500     	0.180000    	P0              	;
 N1257           	82.4700     	0.180000    	P0              	;
 N1258           	86.6100     	0.180000    	P0              	;
 N1259           	83.2000     	0.180000    	P0              	;
 N126            	40.6300     	0.040000    	P0              	;
 N1260           	83.3700     	0.180000    	P0              	;
 N1261           	86.0300     	0.180000    	P0              	;
 N1262           	87.6100     	0.180000    	P0              	;
 N1263           	87.7800     	0.180000    	P0              	;
 N1264           	85.7300     	0.180000    	P0              	;
 N1265           	86.5800     	0.180000    	P0              	;
 N1266           	81.9400     	0.180000    	P0              	;
 N1267           	87.2500     	0.180000    	P0              	;
 N1268           	87.2300     	0.180000    	P0              	;
 N1269           	86.6200     	0.180000    	P0              	;
 N127            	41.8500     	0.040000    	P0              	;
 N1270           	86.9000     	0.180000    	P0              	;
 N1271           	85.5300     	0.180000    	P0              	;
 N1272           	79.4000     	0.180000    	P0              	;
 N1273           	87.0100     	0.180000    	P0              	;
 N1274           	86.8800     	0.180000    	P0              	;
 N1275           	87.2300     	0.180000    	P0              	;
 N1276           	87.9400     	0.180000    	P0              	;
 N1277           	88.3800     	0.180000    	P0              	;
 N1278           	88.4500     	0.180000    	P0              	;
 N1279           	88.9000     	0.180000    	P0              	;
 N128            	43.2200     	0.040000    	P0              	;
 N1280           	83.1300     	0.180000    	P0              	;
 N1281           	83.5100     	0.180000    	P0              	;
 N1282           	82.2100     	0.180000    	P0              	;
 N1283           	85.6300     	0.180000    	P0              	;
 N1284           	79.1000     	0.180000    	P0              	;
 N1285           	75.9200     	0.180000    	P0              	;
 N1286           	76.1700     	0.180000    	P0              	;
 N1287           	75.5700     	0.180000    	P0              	;
 N1288           	75.2200     	0.180000    	P0              	;
 N1289           	76.7700     	0.040000    	P0              	;
 N129            	47.6000     	0.040000    	P0              	;
 N1290           	93.6900     	0.180000    	P0              	;
 N1291           	76.4400     	0.040000    	P0              	;
 N1292           	74.7300     	0.040000    	P0              	;
 N1293           	78.9200     	0.040000    	P0              	;
 N1294           	67.2500     	0.040000    	P0              	;
 N1295           	64.0400     	0.040000    	P0              	;
 N1296           	64.0000     	0.040000    	P0              	;
 N1297           	68.6600     	0.040000    	P0              	;
 N1298           	57.0400     	0.040000    	P0              	;
 N1299           	59.7300     	0.110000    	P0              	;
 N13             	62.1100     	0.060000    	P0              	;
 N130            	47.7400     	0.040000    	P0              	;
 N1300           	59.8200     	0.110000    	P0              	;
 N1301           	61.6800     	0.110000    	P0              	;
 N1302           	76.9600     	0.040000    	P0              	;
 N1303           	74.4000     	0.040000    	P0              	;
 N1304           	82.3900     	0.040000    	P0              	;
 N1305           	89.0500     	0.040000    	P0              	;
 N1306           	90.9100     	0.040000    	P0              	;
 N1307           	82.2800     	0.040000    	P0              	;
 N1308           	85.0900     	0.040000    	P0              	;
 N1309           	91.2700     	0.040000    	P0              	;
 N131            	50.0100     	0.040000    	P0              	;
 N1310           	87.1800     	0.040000    	P0              	;
 N1311           	61.1000     	0.090000    	P0              	;
 N1312           	76.4600     	0.040000    	P0              	;
 N1313           	55.8600     	0.090000    	P0              	;
 N1314           	71.2000     	0.090000    	P0              	;
 N1315           	78.3400     	0.040000    	P0              	;
 N1316           	74.9700     	0.040000    	P0              	;
 N1317           	73.2200     	0.040000    	P0              	;
 N1318           	73.5000     	0.040000    	P0              	;
 N1319           	73.7400     	0.040000    	P0              	;
 N132            	48.5500     	0.040000    	P0              	;
 N1320           	56.4700     	0.040000    	P0              	;
 N1321           	57.3100     	0.040000    	P0              	;
 N1322           	56.5000     	0.040000    	P0              	;
 N1323           	54.5500     	0.040000    	P0              	;
 N1324           	54.5000     	0.040000    	P0              	;
 N1325           	53.7500     	0.040000    	P0              	;
 N1326           	54.3800     	0.040000    	P0              	;
 N1327           	48.0400     	0.040000    	P0              	;
 N1328           	48.5800     	0.040000    	P0              	;
 N1329           	48.9900     	0.040000    	P0              	;
 N133            	49.1900     	0.040000    	P0              	;
 N1330           	48.4900     	0.040000    	P0              	;
 N1331           	48.3400     	0.040000    	P0              	;
 N1332           	42.1500     	0.040000    	P0              	;
 N1333           	46.2800     	0.040000    	P0              	;
 N1334           	45.7800     	0.040000    	P0              	;
 N1335           	46.3400     	0.040000    	P0              	;
 N1336           	46.6000     	0.040000    	P0              	;
 N1337           	46.6100     	0.040000    	P0              	;
 N1338           	44.9800     	0.040000    	P0              	;
 N1339           	52.3300     	0.040000    	P0              	;
 N134            	48.3400     	0.040000    	P0              	;
 N1340           	51.7000     	0.040000    	P0              	;
 N1341           	57.3200     	0.040000    	P0              	;
 N1342           	57.4900     	0.040000    	P0              	;
 N1343           	42.6200     	0.040000    	P0              	;
 N1344           	39.3800     	0.040000    	P0              	;
 N1346           	121.9500    	0.040000    	P0              	;
 N1347           	104.1000    	0.040000    	P0              	;
 N1348           	94.9400     	0.040000    	P0              	;
 N1349           	97.6200     	0.040000    	P0              	;
 N135            	47.1400     	0.040000    	P0              	;
 N1350           	106.2900    	0.040000    	P0              	;
 N1351           	105.4700    	0.040000    	P0              	;
 N1352           	108.3500    	0.040000    	P0              	;
 N1354           	104.2100    	0.040000    	P0              	;
 N1355           	104.0400    	0.040000    	P0              	;
 N1356           	107.5200    	0.040000    	P0              	;
 N1357           	100.1200    	0.040000    	P0              	;
 N1358           	104.1400    	0.040000    	P0              	;
 N1359           	103.8700    	0.040000    	P0              	;
 N136            	58.8200     	0.040000    	P0              	;
 N1360           	108.9100    	0.040000    	P0              	;
 N1361           	109.5900    	0.040000    	P0              	;
 N1362           	115.4100    	0.040000    	P0              	;
 N1363           	107.7800    	0.040000    	P0              	;
 N1364           	112.6600    	0.040000    	P0              	;
 N1365           	117.3000    	0.040000    	P0              	;
 N1366           	119.5600    	0.040000    	P0              	;
 N1367           	122.4800    	0.040000    	P0              	;
 N1368           	119.1300    	0.040000    	P0              	;
 N1369           	122.1300    	0.040000    	P0              	;
 N137            	58.8300     	0.040000    	P0              	;
 N1370           	117.3000    	0.040000    	P0              	;
 N1371           	94.9400     	0.040000    	P0              	;
 N1372           	97.6400     	0.040000    	P0              	;
 N1373           	89.0200     	0.040000    	P0              	;
 N1374           	94.3100     	0.040000    	P0              	;
 N1375           	98.7900     	0.040000    	P0              	;
 N1376           	83.1100     	0.040000    	P0              	;
 N1377           	86.5900     	0.040000    	P0              	;
 N1378           	88.3300     	0.040000    	P0              	;
 N1379           	91.4000     	0.040000    	P0              	;
 N138            	57.7400     	0.040000    	P0              	;
 N1380           	90.0100     	0.040000    	P0              	;
 N1381           	92.6500     	0.040000    	P0              	;
 N1382           	90.6900     	0.040000    	P0              	;
 N1383           	94.8000     	0.040000    	P0              	;
 N1384           	93.9200     	0.040000    	P0              	;
 N1385           	97.3500     	0.040000    	P0              	;
 N1386           	96.7400     	0.040000    	P0              	;
 N1387           	95.4300     	0.040000    	P0              	;
 N1388           	93.9400     	0.040000    	P0              	;
 N1389           	92.0500     	0.040000    	P0              	;
 N139            	57.2800     	0.040000    	P0              	;
 N1390           	95.6700     	0.040000    	P0              	;
 N1391           	97.3900     	0.040000    	P0              	;
 N1392           	99.3400     	0.040000    	P0              	;
 N1393           	101.7000    	0.040000    	P0              	;
 N1394           	102.5200    	0.040000    	P0              	;
 N1395           	101.3600    	0.040000    	P0              	;
 N1396           	105.1500    	0.040000    	P0              	;
 N1397           	105.7200    	0.040000    	P0              	;
 N1398           	100.0300    	0.040000    	P0              	;
 N1399           	105.0700    	0.040000    	P0              	;
 N14             	58.7800     	0.060000    	P0              	;
 N140            	62.4800     	0.040000    	P0              	;
 N1400           	101.0000    	0.040000    	P0              	;
 N1401           	102.8100    	0.040000    	P0              	;
 N1402           	99.3100     	0.040000    	P0              	;
 N1403           	101.0100    	0.040000    	P0              	;
 N1404           	101.1400    	0.040000    	P0              	;
 N1405           	98.5000     	0.040000    	P0              	;
 N1406           	97.2700     	0.040000    	P0              	;
 N1407           	105.5900    	0.040000    	P0              	;
 N1408           	105.9400    	0.040000    	P0              	;
 N1409           	106.7500    	0.040000    	P0              	;
 N141            	60.7200     	0.040000    	P0              	;
 N1410           	107.3900    	0.040000    	P0              	;
 N1411           	107.7500    	0.040000    	P0              	;
 N1412           	106.6800    	0.040000    	P0              	;
 N1413           	107.1600    	0.040000    	P0              	;
 N1414           	106.9500    	0.040000    	P0              	;
 N1415           	100.8100    	0.040000    	P0              	;
 N1416           	92.6500     	0.040000    	P0              	;
 N1417           	98.3000     	0.040000    	P0              	;
 N1418           	102.6700    	0.040000    	P0              	;
 N1419           	91.7700     	0.040000    	P0              	;
 N142            	60.2000     	0.040000    	P0              	;
 N1420           	88.1900     	0.040000    	P0              	;
 N1421           	95.7900     	0.040000    	P0              	;
 N1422           	93.2400     	0.040000    	P0              	;
 N1423           	87.2500     	0.040000    	P0              	;
 N1424           	83.9400     	0.040000    	P0              	;
 N1425           	79.0900     	0.040000    	P0              	;
 N1426           	97.1000     	0.040000    	P0              	;
 N1427           	94.3700     	0.040000    	P0              	;
 N1428           	80.1000     	0.040000    	P0              	;
 N1429           	80.3600     	0.040000    	P0              	;
 N143            	54.1800     	0.040000    	P0              	;
 N1430           	77.6600     	0.040000    	P0              	;
 N1431           	82.5500     	0.040000    	P0              	;